*Heading
** Job name: RRX_GNA_3 Model name: Model-1
*Preprint, echo=NO, model=NO, history=NO, contact=NO
**
** PARTS
**
*Part, name=Part-1
*End Part
**  
**
** ASSEMBLY
**
*Assembly, name=Assembly
**  
*Instance, name=Part-1-1, part=Part-1
*Node
      1,        1000.,         144.,           0.
      2,       -1000.,         144.,           0.
      3,       -1000.,         845.,           0.
      4,        1000.,         845.,           0.
      5,       -1000.,        1000.,           0.
      6,        1000.,        1000.,           0.
      7,        1000.,           0.,           0.
      8,       -1000.,           0.,           0.
      9,   999.506531,         144.,    31.410759
     10,   998.026733,         144.,   62.7905197
     11,   995.561951,         144.,   94.1083145
     12,   992.114685,         144.,   125.333237
     13,   987.688354,         144.,   156.434464
     14,   982.287231,         144.,   187.381317
     15,   975.916748,         144.,   218.143234
     16,   968.583191,         144.,    248.68988
     17,   960.293701,         144.,   278.991119
     18,   951.056519,         144.,   309.016998
     19,   940.880798,         144.,   338.737915
     20,   929.776489,         144.,   368.124542
** ... 6141 like lines cut
*Element, type=S4R
   1,    1,    9,  519,  244
   2,    9,   10,  520,  519
   3,   10,   11,  521,  520
   4,   11,   12,  522,  521
   5,   12,   13,  523,  522
   6,   13,   14,  524,  523
   7,   14,   15,  525,  524
   8,   15,   16,  526,  525
   9,   16,   17,  527,  526
  10,   17,   18,  528,  527
  11,   18,   19,  529,  528
  12,   19,   20,  530,  529
  13,   20,   21,  531,  530
  14,   21,   22,  532,  531
  15,   22,   23,  533,  532
  16,   23,   24,  534,  533
  17,   24,   25,  535,  534
  18,   25,   26,  536,  535
  19,   26,   27,  537,  536
  20,   27,   28,  538,  537
** ... 5980 like lines cut
*Nset, nset=Set-1, generate
    1,  6161,     1
*Elset, elset=Set-1, generate
    1,  6000,     1
** Section: Section-1
*Shell Section, elset=Set-1, material=Material-1
1., 5
*End Instance
**  
*Nset, nset=Set-1, instance=Part-1-1
   1,   2,   3,   4,   5,   6,   7,   8, 108, 109, 110, 111, 112, 113, 114, 115
 116, 117, 118, 119, 120, 121, 122, 123, 124, 125, 126, 226, 227, 228, 229, 230
 231, 232, 233, 234, 235, 236, 237, 238, 239, 240, 241, 242, 243, 244, 245, 246
 247, 248, 249, 250, 251, 252, 253, 254, 255, 256, 257, 258, 259, 260, 261, 262
 263, 363, 364, 365, 366, 367, 368, 369, 370, 371, 372, 373, 374, 375, 376, 377
 378, 379, 380, 381, 382, 383, 384, 385, 386, 387, 388, 389, 390, 391, 392, 393
 394, 395, 396, 397, 398, 399, 400, 500, 501, 502, 503, 504, 505, 506, 507, 508
 509, 510, 511, 512, 513, 514, 515, 516, 517, 518
*Elset, elset=Set-1, instance=Part-1-1
    1,  100,  101,  200,  201,  300,  301,  400,  401,  500,  501,  600,  601,  700,  701,  800
  801,  900,  901, 1000, 1001, 1100, 1101, 1200, 1201, 1300, 1301, 1400, 1401, 1500, 1501, 1600
 1601, 1700, 1701, 1800, 1801, 1900, 1901, 2000, 2001, 2100, 2101, 2200, 2201, 2300, 2301, 2400
 2401, 2500, 2501, 2600, 2601, 2700, 2701, 2800, 2801, 2900, 2901, 3000, 3001, 3100, 3101, 3200
 3201, 3300, 3301, 3400, 3401, 3500, 3501, 3600, 3601, 3700, 3701, 3800, 3801, 3900, 3901, 4000
 4001, 4100, 4101, 4200, 4201, 4300, 4301, 4400, 4401, 4500, 4501, 4600, 4601, 4700, 4701, 4800
 4801, 4900, 4901, 5000, 5001, 5100, 5101, 5200, 5201, 5300, 5301, 5400, 5401, 5500, 5501, 5600
 5601, 5700, 5701, 5800, 5801, 5900, 5901, 6000
*Nset, nset=Set-2, instance=Part-1-1
   7,   8, 401, 402, 403, 404, 405, 406, 407, 408, 409, 410, 411, 412, 413, 414
 415, 416, 417, 418, 419, 420, 421, 422, 423, 424, 425, 426, 427, 428, 429, 430
 431, 432, 433, 434, 435, 436, 437, 438, 439, 440, 441, 442, 443, 444, 445, 446
 447, 448, 449, 450, 451, 452, 453, 454, 455, 456, 457, 458, 459, 460, 461, 462
 463, 464, 465, 466, 467, 468, 469, 470, 471, 472, 473, 474, 475, 476, 477, 478
 479, 480, 481, 482, 483, 484, 485, 486, 487, 488, 489, 490, 491, 492, 493, 494
 495, 496, 497, 498, 499
*Elset, elset=Set-2, instance=Part-1-1, generate
 5901,  6000,     1
*Nset, nset=Set-3, instance=Part-1-1
   5,   6, 264, 265, 266, 267, 268, 269, 270, 271, 272, 273, 274, 275, 276, 277
 278, 279, 280, 281, 282, 283, 284, 285, 286, 287, 288, 289, 290, 291, 292, 293
 294, 295, 296, 297, 298, 299, 300, 301, 302, 303, 304, 305, 306, 307, 308, 309
 310, 311, 312, 313, 314, 315, 316, 317, 318, 319, 320, 321, 322, 323, 324, 325
 326, 327, 328, 329, 330, 331, 332, 333, 334, 335, 336, 337, 338, 339, 340, 341
 342, 343, 344, 345, 346, 347, 348, 349, 350, 351, 352, 353, 354, 355, 356, 357
 358, 359, 360, 361, 362
*Elset, elset=Set-3, instance=Part-1-1, generate
 3901,  4000,     1
*Elset, elset=_Surf-1_E3, internal, instance=Part-1-1, generate
 3901,  4000,     1
*Surface, type=ELEMENT, name=Surf-1
_Surf-1_E3, E3
*Elset, elset=_Surf-2_SPOS, internal, instance=Part-1-1, generate
    1,  6000,     1
*Surface, type=ELEMENT, name=Surf-2
_Surf-2_SPOS, SPOS
*Nset, nset=_T-CylSYS, internal
Set-2, 
Set-3, 
Set-1, 
*Transform, nset=_T-CylSYS, type=C
          0.,           0.,           0.,           0.,           1.,           0.
*NSET, NSET=RIKS, INSTANCE=Part-1-1
6
*End Assembly
** 
** MATERIALS
** 
*Material, name=Material-1
*Elastic
200000., 0.3
** 
** BOUNDARY CONDITIONS
** 
** Name: BC1r Type: Displacement/Rotation
*Boundary
Set-2, 1, 1
Set-2, 2, 2
Set-2, 3, 3
Set-2, 5, 5
** Name: BC2f Type: Displacement/Rotation
*Boundary
Set-3, 1, 1
Set-3, 2, 2
** Name: Sym Type: Symmetry/Antisymmetry/Encastre
*Boundary
Set-1, YSYMM
** ----------------------------------------------------------------
** 
** STEP: GNA
** 
*Step, name=GNA, nlgeom=YES, inc=500
*Static, riks
0.05, 1., 1e-15, 0.05, ,
** 
** LOADS
** 
** Name: N   Type: Shell edge load
*Dsload
Surf-1, EDNOR, 121.
** 
** OUTPUT REQUESTS
** 
*Restart, write, frequency=0
** 
** FIELD OUTPUT: F-Output-1
** 
*Output, field, variable=PRESELECT
** 
** HISTORY OUTPUT: H-Output-1
** 
*Output, history
*NODE OUTPUT, NSET=RIKS
U2
*End Step